Version 4
SHEET 1 880 680
WIRE 416 -64 192 -64
WIRE 288 16 80 16
WIRE 192 64 192 -64
WIRE 80 80 80 16
WIRE 160 80 80 80
WIRE 240 96 224 96
WIRE 288 96 288 16
WIRE 288 96 240 96
WIRE 160 112 -16 112
WIRE 240 144 240 96
WIRE 496 144 432 144
WIRE 0 176 -16 176
WIRE 416 224 416 -64
WIRE 240 240 240 224
WIRE 352 240 352 144
WIRE 352 240 240 240
WIRE 384 240 352 240
WIRE 496 256 496 144
WIRE 496 256 448 256
WIRE 544 256 496 256
WIRE 80 272 80 176
WIRE 384 272 80 272
WIRE 80 368 80 352
WIRE 192 368 192 128
WIRE 192 368 80 368
WIRE 416 368 416 288
WIRE 416 368 192 368
WIRE 192 416 192 368
FLAG -16 112 +
FLAG -16 176 -
FLAG 544 256 I
FLAG 192 416 0
FLAG 192 -64 V+
SYMBOL LT1677 192 32 R0
SYMATTR InstName U1
SYMBOL LT1677 416 192 R0
SYMATTR InstName U2
SYMBOL res 96 160 R90
WINDOW 0 0 56 VBottom 2
WINDOW 3 32 56 VTop 2
SYMATTR InstName R1
SYMATTR Value 10k
SYMBOL res 96 368 R180
WINDOW 0 36 76 Left 2
WINDOW 3 36 40 Left 2
SYMATTR InstName R2
SYMATTR Value 10k
SYMBOL res 224 128 R0
SYMATTR InstName R3
SYMATTR Value 10k
SYMBOL res 448 128 R90
WINDOW 0 0 56 VBottom 2
WINDOW 3 32 56 VTop 2
SYMATTR InstName R4
SYMATTR Value 10k
