Version 4
SHEET 1 1220 980
WIRE -816 -128 -832 -128
WIRE -672 -128 -736 -128
WIRE -16 -128 -672 -128
WIRE 48 -128 -16 -128
WIRE 208 -128 48 -128
WIRE 304 -128 208 -128
WIRE 464 -128 368 -128
WIRE 576 -128 464 -128
WIRE 784 -128 576 -128
WIRE 1008 -128 784 -128
WIRE -832 -48 -832 -128
WIRE -464 -48 -832 -48
WIRE 208 -32 208 -128
WIRE 784 -32 784 -128
WIRE -464 -16 -464 -48
WIRE 576 0 576 -128
WIRE 784 16 784 -32
WIRE 1008 16 1008 -128
WIRE -672 32 -672 -128
WIRE -560 32 -672 32
WIRE 896 48 848 48
WIRE -288 64 -368 64
WIRE -16 64 -16 -128
WIRE 896 64 896 48
WIRE 48 80 48 -128
WIRE 80 80 48 80
WIRE 464 80 464 -128
WIRE 464 80 336 80
WIRE -832 96 -832 -48
WIRE -560 96 -832 96
WIRE 784 128 784 96
WIRE -832 224 -832 96
WIRE -176 224 -832 224
WIRE 80 224 -176 224
WIRE 112 256 -224 256
WIRE 208 256 208 192
WIRE 208 256 112 256
WIRE 400 256 208 256
WIRE -832 272 -832 224
WIRE 208 272 208 256
WIRE 400 288 400 256
WIRE -176 336 -176 224
WIRE -224 352 -224 256
WIRE -208 352 -224 352
WIRE 208 368 208 352
WIRE 208 368 -144 368
WIRE -384 384 -656 384
WIRE -208 384 -384 384
WIRE 80 416 80 224
WIRE -320 448 -464 448
WIRE 0 448 -320 448
WIRE -464 464 -464 448
WIRE 208 480 208 368
WIRE 208 480 160 480
WIRE -288 512 -288 64
WIRE -272 512 -288 512
WIRE 0 512 -272 512
WIRE -656 528 -656 384
WIRE -832 656 -832 352
WIRE -656 656 -656 608
WIRE -656 656 -832 656
WIRE -464 656 -464 544
WIRE -464 656 -656 656
WIRE -176 656 -176 400
WIRE -176 656 -464 656
WIRE -16 656 -16 128
WIRE -16 656 -176 656
WIRE 288 656 -16 656
WIRE 400 656 400 352
WIRE 400 656 288 656
WIRE 576 656 576 64
WIRE 576 656 400 656
WIRE 784 656 784 128
WIRE 784 656 576 656
WIRE 896 656 896 144
WIRE 896 656 784 656
WIRE 1008 656 1008 96
WIRE 1008 656 896 656
WIRE 288 688 288 656
FLAG 288 688 0
FLAG -272 512 ISense
FLAG -320 448 ISet
FLAG -384 384 Vref
FLAG 1008 -128 Out
FLAG 112 256 SET
SYMBOL LT3080 208 80 R0
SYMATTR InstName U1
SYMBOL schottky 368 -144 R90
WINDOW 0 0 32 VBottom 2
WINDOW 3 32 32 VTop 2
SYMATTR InstName D1
SYMBOL cap 560 0 R0
SYMATTR InstName C1
SYMATTR Value 2.2µ
SYMBOL cap -32 64 R0
SYMATTR InstName C2
SYMATTR Value 1µ
SYMBOL voltage -656 512 R0
WINDOW 123 0 0 Left 2
WINDOW 39 24 118 Left 2
SYMATTR SpiceLine Rser=1k
SYMATTR InstName Vref
SYMATTR Value PULSE(0 {Vset} {Vstart} 1u 1u {Von} 400m)
SYMBOL voltage -464 448 R0
WINDOW 123 0 0 Left 2
WINDOW 39 24 118 Left 2
SYMATTR SpiceLine Rser=1k
SYMATTR InstName ISet
SYMATTR Value PULSE({Ilow} {Iset} {Istart} 10u 1u {Ion} 200m)
SYMBOL voltage -832 256 R0
WINDOW 123 0 0 Left 2
WINDOW 39 0 0 Left 2
SYMATTR InstName Vsupply
SYMATTR Value {Vin}
SYMBOL res -720 -144 R90
WINDOW 0 0 56 VBottom 2
WINDOW 3 32 56 VTop 2
SYMATTR InstName R3
SYMATTR Value 1
SYMBOL opamp2 -176 304 R0
SYMATTR InstName U6
SYMATTR Value LM358
SYMBOL cap 384 288 R0
SYMATTR InstName C3
SYMATTR Value 2.2µ
SYMBOL Isense -464 64 R0
SYMATTR InstName X1
SYMBOL Ilim 80 480 R0
SYMATTR InstName X2
SYMBOL res 192 256 R0
SYMATTR InstName R1
SYMATTR Value 100
SYMBOL res 992 0 R0
SYMATTR InstName R2
SYMATTR Value {RLoad}
SYMBOL lm334 784 48 R0
SYMATTR InstName U2
SYMBOL res 880 48 R0
SYMATTR InstName R4
SYMATTR Value 100
TEXT -448 728 Left 2 !.tran 0 10m 0 startup uic
TEXT -448 768 Left 2 !.inc ./LM358.mod
TEXT -136 728 Left 2 !.option CSHUNT=1e-15
TEXT 400 768 Left 2 !.param Ilow 0
TEXT 136 728 Left 2 !.param Vin 12
TEXT 136 768 Left 2 !.param Vset 12
TEXT 400 728 Left 2 !.param Iset 0.5
TEXT 616 728 Left 2 !.param RLoad 1
TEXT 400 808 Left 2 !.param Ion 5m
TEXT 400 848 Left 2 !.param Istart 2m
TEXT 136 808 Left 2 !.param Vstart .2m
TEXT 136 848 Left 2 !.param Von 20m
